# generated using pymatgen
data_Zn2FeSeO2
_symmetry_space_group_name_H-M   'P 1'
_cell_length_a   3.68826897
_cell_length_b   3.68826897
_cell_length_c   18.91200000
_cell_angle_alpha   90.00000000
_cell_angle_beta   90.00000000
_cell_angle_gamma   90.00000000
_symmetry_Int_Tables_number   1
_chemical_formula_structural   Zn2FeSeO2
_chemical_formula_sum   'Zn4 Fe2 Se2 O4'
_cell_volume   257.26613914
_cell_formula_units_Z   2
loop_
 _symmetry_equiv_pos_site_id
 _symmetry_equiv_pos_as_xyz
  1  'x, y, z'
loop_
 _atom_site_type_symbol
 _atom_site_label
 _atom_site_symmetry_multiplicity
 _atom_site_fract_x
 _atom_site_fract_y
 _atom_site_fract_z
 _atom_site_occupancy
  Zn  Zn1  1  0.500000  0.500000  0.396574  1
  Zn  Zn2  1  0.000000  0.000000  0.396574  1
  O  O3  1  0.000000  0.500000  0.465525  1
  O  O4  1  0.500000  0.000000  0.465525  1
  Zn  Zn5  1  0.500000  0.500000  0.534475  1
  Zn  Zn6  1  1.000000  0.000000  0.534475  1
  O  O7  1  1.000000  0.500000  0.603426  1
  O  O8  1  0.500000  0.000000  0.603426  1
  Fe  Fe9  1  -0.500000  -0.500000  0.762056  1
  Fe  Fe10  1  0.000000  0.000000  0.762056  1
  Se  Se11  1  -0.500000  0.000000  0.998804  1
  Se  Se12  1  0.000000  -0.500000  0.834857  1
