# generated using pymatgen
data_FeS
_symmetry_space_group_name_H-M   'P 1'
_cell_length_a   3.59555500
_cell_length_b   3.59555500
_cell_length_c   9.24311400
_cell_angle_alpha   90.00000000
_cell_angle_beta   90.00000000
_cell_angle_gamma   90.00000000
_symmetry_Int_Tables_number   1
_chemical_formula_structural   FeS
_chemical_formula_sum   'Fe4 S4'
_cell_volume   119.49512345
_cell_formula_units_Z   4
loop_
 _symmetry_equiv_pos_site_id
 _symmetry_equiv_pos_as_xyz
  1  'x, y, z'
loop_
 _atom_site_type_symbol
 _atom_site_label
 _atom_site_symmetry_multiplicity
 _atom_site_fract_x
 _atom_site_fract_y
 _atom_site_fract_z
 _atom_site_occupancy
  Fe  Fe1  1  0.500000  0.500000  0.270472  1
  Fe  Fe2  1  0.000000  0.000000  0.270472  1
  S  S3  1  0.500000  1.000000  0.401523  1
  S  S4  1  1.000000  0.500000  0.729528  1
  Fe  Fe5  1  0.000000  0.000000  1.054094  1
  Fe  Fe6  1  -0.500000  -0.500000  1.054094  1
  S  S7  1  0.000000  -0.500000  1.185145  1
  S  S8  1  -0.500000  0.000000  1.513151  1
